
#======================================================================
# CRYSTAL DATA
#----------------------------------------------------------------------
data_VESTA_phase_1

_chemical_name_common                  'Zn4 S4'
_cell_length_a                         37.711559
_cell_length_b                         37.711559
_cell_length_c                         37.711559
_cell_angle_alpha                      90.000000
_cell_angle_beta                       90.000000
_cell_angle_gamma                      90.000000
_cell_volume                           53631.935448
_space_group_name_H-M_alt              'P 1'
_space_group_IT_number                 1

loop_
_space_group_symop_operation_xyz
   'x, y, z'
   'x, y, z+0.142857'
   'x, y, z+0.285714'
   'x, y, z+0.428571'
   'x, y, z+0.571429'
   'x, y, z+0.714286'
   'x, y, z+0.857143'
   'x, y+0.142857, z'
   'x, y+0.142857, z+0.142857'
   'x, y+0.142857, z+0.285714'
   'x, y+0.142857, z+0.428571'
   'x, y+0.142857, z+0.571429'
   'x, y+0.142857, z+0.714286'
   'x, y+0.142857, z+0.857143'
   'x, y+0.285714, z'
   'x, y+0.285714, z+0.142857'
   'x, y+0.285714, z+0.285714'
   'x, y+0.285714, z+0.428571'
   'x, y+0.285714, z+0.571429'
   'x, y+0.285714, z+0.714286'
   'x, y+0.285714, z+0.857143'
   'x, y+0.428571, z'
   'x, y+0.428571, z+0.142857'
   'x, y+0.428571, z+0.285714'
   'x, y+0.428571, z+0.428571'
   'x, y+0.428571, z+0.571429'
   'x, y+0.428571, z+0.714286'
   'x, y+0.428571, z+0.857143'
   'x, y+0.571429, z'
   'x, y+0.571429, z+0.142857'
   'x, y+0.571429, z+0.285714'
   'x, y+0.571429, z+0.428571'
   'x, y+0.571429, z+0.571429'
   'x, y+0.571429, z+0.714286'
   'x, y+0.571429, z+0.857143'
   'x, y+0.714286, z'
   'x, y+0.714286, z+0.142857'
   'x, y+0.714286, z+0.285714'
   'x, y+0.714286, z+0.428571'
   'x, y+0.714286, z+0.571429'
   'x, y+0.714286, z+0.714286'
   'x, y+0.714286, z+0.857143'
   'x, y+0.857143, z'
   'x, y+0.857143, z+0.142857'
   'x, y+0.857143, z+0.285714'
   'x, y+0.857143, z+0.428571'
   'x, y+0.857143, z+0.571429'
   'x, y+0.857143, z+0.714286'
   'x, y+0.857143, z+0.857143'
   'x+0.142857, y, z'
   'x+0.142857, y, z+0.142857'
   'x+0.142857, y, z+0.285714'
   'x+0.142857, y, z+0.428571'
   'x+0.142857, y, z+0.571429'
   'x+0.142857, y, z+0.714286'
   'x+0.142857, y, z+0.857143'
   'x+0.142857, y+0.142857, z'
   'x+0.142857, y+0.142857, z+0.142857'
   'x+0.142857, y+0.142857, z+0.285714'
   'x+0.142857, y+0.142857, z+0.428571'
   'x+0.142857, y+0.142857, z+0.571429'
   'x+0.142857, y+0.142857, z+0.714286'
   'x+0.142857, y+0.142857, z+0.857143'
   'x+0.142857, y+0.285714, z'
   'x+0.142857, y+0.285714, z+0.142857'
   'x+0.142857, y+0.285714, z+0.285714'
   'x+0.142857, y+0.285714, z+0.428571'
   'x+0.142857, y+0.285714, z+0.571429'
   'x+0.142857, y+0.285714, z+0.714286'
   'x+0.142857, y+0.285714, z+0.857143'
   'x+0.142857, y+0.428571, z'
   'x+0.142857, y+0.428571, z+0.142857'
   'x+0.142857, y+0.428571, z+0.285714'
   'x+0.142857, y+0.428571, z+0.428571'
   'x+0.142857, y+0.428571, z+0.571429'
   'x+0.142857, y+0.428571, z+0.714286'
   'x+0.142857, y+0.428571, z+0.857143'
   'x+0.142857, y+0.571429, z'
   'x+0.142857, y+0.571429, z+0.142857'
   'x+0.142857, y+0.571429, z+0.285714'
   'x+0.142857, y+0.571429, z+0.428571'
   'x+0.142857, y+0.571429, z+0.571429'
   'x+0.142857, y+0.571429, z+0.714286'
   'x+0.142857, y+0.571429, z+0.857143'
   'x+0.142857, y+0.714286, z'
   'x+0.142857, y+0.714286, z+0.142857'
   'x+0.142857, y+0.714286, z+0.285714'
   'x+0.142857, y+0.714286, z+0.428571'
   'x+0.142857, y+0.714286, z+0.571429'
   'x+0.142857, y+0.714286, z+0.714286'
   'x+0.142857, y+0.714286, z+0.857143'
   'x+0.142857, y+0.857143, z'
   'x+0.142857, y+0.857143, z+0.142857'
   'x+0.142857, y+0.857143, z+0.285714'
   'x+0.142857, y+0.857143, z+0.428571'
   'x+0.142857, y+0.857143, z+0.571429'
   'x+0.142857, y+0.857143, z+0.714286'
   'x+0.142857, y+0.857143, z+0.857143'
   'x+0.285714, y, z'
   'x+0.285714, y, z+0.142857'
   'x+0.285714, y, z+0.285714'
   'x+0.285714, y, z+0.428571'
   'x+0.285714, y, z+0.571429'
   'x+0.285714, y, z+0.714286'
   'x+0.285714, y, z+0.857143'
   'x+0.285714, y+0.142857, z'
   'x+0.285714, y+0.142857, z+0.142857'
   'x+0.285714, y+0.142857, z+0.285714'
   'x+0.285714, y+0.142857, z+0.428571'
   'x+0.285714, y+0.142857, z+0.571429'
   'x+0.285714, y+0.142857, z+0.714286'
   'x+0.285714, y+0.142857, z+0.857143'
   'x+0.285714, y+0.285714, z'
   'x+0.285714, y+0.285714, z+0.142857'
   'x+0.285714, y+0.285714, z+0.285714'
   'x+0.285714, y+0.285714, z+0.428571'
   'x+0.285714, y+0.285714, z+0.571429'
   'x+0.285714, y+0.285714, z+0.714286'
   'x+0.285714, y+0.285714, z+0.857143'
   'x+0.285714, y+0.428571, z'
   'x+0.285714, y+0.428571, z+0.142857'
   'x+0.285714, y+0.428571, z+0.285714'
   'x+0.285714, y+0.428571, z+0.428571'
   'x+0.285714, y+0.428571, z+0.571429'
   'x+0.285714, y+0.428571, z+0.714286'
   'x+0.285714, y+0.428571, z+0.857143'
   'x+0.285714, y+0.571429, z'
   'x+0.285714, y+0.571429, z+0.142857'
   'x+0.285714, y+0.571429, z+0.285714'
   'x+0.285714, y+0.571429, z+0.428571'
   'x+0.285714, y+0.571429, z+0.571429'
   'x+0.285714, y+0.571429, z+0.714286'
   'x+0.285714, y+0.571429, z+0.857143'
   'x+0.285714, y+0.714286, z'
   'x+0.285714, y+0.714286, z+0.142857'
   'x+0.285714, y+0.714286, z+0.285714'
   'x+0.285714, y+0.714286, z+0.428571'
   'x+0.285714, y+0.714286, z+0.571429'
   'x+0.285714, y+0.714286, z+0.714286'
   'x+0.285714, y+0.714286, z+0.857143'
   'x+0.285714, y+0.857143, z'
   'x+0.285714, y+0.857143, z+0.142857'
   'x+0.285714, y+0.857143, z+0.285714'
   'x+0.285714, y+0.857143, z+0.428571'
   'x+0.285714, y+0.857143, z+0.571429'
   'x+0.285714, y+0.857143, z+0.714286'
   'x+0.285714, y+0.857143, z+0.857143'
   'x+0.428571, y, z'
   'x+0.428571, y, z+0.142857'
   'x+0.428571, y, z+0.285714'
   'x+0.428571, y, z+0.428571'
   'x+0.428571, y, z+0.571429'
   'x+0.428571, y, z+0.714286'
   'x+0.428571, y, z+0.857143'
   'x+0.428571, y+0.142857, z'
   'x+0.428571, y+0.142857, z+0.142857'
   'x+0.428571, y+0.142857, z+0.285714'
   'x+0.428571, y+0.142857, z+0.428571'
   'x+0.428571, y+0.142857, z+0.571429'
   'x+0.428571, y+0.142857, z+0.714286'
   'x+0.428571, y+0.142857, z+0.857143'
   'x+0.428571, y+0.285714, z'
   'x+0.428571, y+0.285714, z+0.142857'
   'x+0.428571, y+0.285714, z+0.285714'
   'x+0.428571, y+0.285714, z+0.428571'
   'x+0.428571, y+0.285714, z+0.571429'
   'x+0.428571, y+0.285714, z+0.714286'
   'x+0.428571, y+0.285714, z+0.857143'
   'x+0.428571, y+0.428571, z'
   'x+0.428571, y+0.428571, z+0.142857'
   'x+0.428571, y+0.428571, z+0.285714'
   'x+0.428571, y+0.428571, z+0.428571'
   'x+0.428571, y+0.428571, z+0.571429'
   'x+0.428571, y+0.428571, z+0.714286'
   'x+0.428571, y+0.428571, z+0.857143'
   'x+0.428571, y+0.571429, z'
   'x+0.428571, y+0.571429, z+0.142857'
   'x+0.428571, y+0.571429, z+0.285714'
   'x+0.428571, y+0.571429, z+0.428571'
   'x+0.428571, y+0.571429, z+0.571429'
   'x+0.428571, y+0.571429, z+0.714286'
   'x+0.428571, y+0.571429, z+0.857143'
   'x+0.428571, y+0.714286, z'
   'x+0.428571, y+0.714286, z+0.142857'
   'x+0.428571, y+0.714286, z+0.285714'
   'x+0.428571, y+0.714286, z+0.428571'
   'x+0.428571, y+0.714286, z+0.571429'
   'x+0.428571, y+0.714286, z+0.714286'
   'x+0.428571, y+0.714286, z+0.857143'
   'x+0.428571, y+0.857143, z'
   'x+0.428571, y+0.857143, z+0.142857'
   'x+0.428571, y+0.857143, z+0.285714'
   'x+0.428571, y+0.857143, z+0.428571'
   'x+0.428571, y+0.857143, z+0.571429'
   'x+0.428571, y+0.857143, z+0.714286'
   'x+0.428571, y+0.857143, z+0.857143'
   'x+0.571429, y, z'
   'x+0.571429, y, z+0.142857'
   'x+0.571429, y, z+0.285714'
   'x+0.571429, y, z+0.428571'
   'x+0.571429, y, z+0.571429'
   'x+0.571429, y, z+0.714286'
   'x+0.571429, y, z+0.857143'
   'x+0.571429, y+0.142857, z'
   'x+0.571429, y+0.142857, z+0.142857'
   'x+0.571429, y+0.142857, z+0.285714'
   'x+0.571429, y+0.142857, z+0.428571'
   'x+0.571429, y+0.142857, z+0.571429'
   'x+0.571429, y+0.142857, z+0.714286'
   'x+0.571429, y+0.142857, z+0.857143'
   'x+0.571429, y+0.285714, z'
   'x+0.571429, y+0.285714, z+0.142857'
   'x+0.571429, y+0.285714, z+0.285714'
   'x+0.571429, y+0.285714, z+0.428571'
   'x+0.571429, y+0.285714, z+0.571429'
   'x+0.571429, y+0.285714, z+0.714286'
   'x+0.571429, y+0.285714, z+0.857143'
   'x+0.571429, y+0.428571, z'
   'x+0.571429, y+0.428571, z+0.142857'
   'x+0.571429, y+0.428571, z+0.285714'
   'x+0.571429, y+0.428571, z+0.428571'
   'x+0.571429, y+0.428571, z+0.571429'
   'x+0.571429, y+0.428571, z+0.714286'
   'x+0.571429, y+0.428571, z+0.857143'
   'x+0.571429, y+0.571429, z'
   'x+0.571429, y+0.571429, z+0.142857'
   'x+0.571429, y+0.571429, z+0.285714'
   'x+0.571429, y+0.571429, z+0.428571'
   'x+0.571429, y+0.571429, z+0.571429'
   'x+0.571429, y+0.571429, z+0.714286'
   'x+0.571429, y+0.571429, z+0.857143'
   'x+0.571429, y+0.714286, z'
   'x+0.571429, y+0.714286, z+0.142857'
   'x+0.571429, y+0.714286, z+0.285714'
   'x+0.571429, y+0.714286, z+0.428571'
   'x+0.571429, y+0.714286, z+0.571429'
   'x+0.571429, y+0.714286, z+0.714286'
   'x+0.571429, y+0.714286, z+0.857143'
   'x+0.571429, y+0.857143, z'
   'x+0.571429, y+0.857143, z+0.142857'
   'x+0.571429, y+0.857143, z+0.285714'
   'x+0.571429, y+0.857143, z+0.428571'
   'x+0.571429, y+0.857143, z+0.571429'
   'x+0.571429, y+0.857143, z+0.714286'
   'x+0.571429, y+0.857143, z+0.857143'
   'x+0.714286, y, z'
   'x+0.714286, y, z+0.142857'
   'x+0.714286, y, z+0.285714'
   'x+0.714286, y, z+0.428571'
   'x+0.714286, y, z+0.571429'
   'x+0.714286, y, z+0.714286'
   'x+0.714286, y, z+0.857143'
   'x+0.714286, y+0.142857, z'
   'x+0.714286, y+0.142857, z+0.142857'
   'x+0.714286, y+0.142857, z+0.285714'
   'x+0.714286, y+0.142857, z+0.428571'
   'x+0.714286, y+0.142857, z+0.571429'
   'x+0.714286, y+0.142857, z+0.714286'
   'x+0.714286, y+0.142857, z+0.857143'
   'x+0.714286, y+0.285714, z'
   'x+0.714286, y+0.285714, z+0.142857'
   'x+0.714286, y+0.285714, z+0.285714'
   'x+0.714286, y+0.285714, z+0.428571'
   'x+0.714286, y+0.285714, z+0.571429'
   'x+0.714286, y+0.285714, z+0.714286'
   'x+0.714286, y+0.285714, z+0.857143'
   'x+0.714286, y+0.428571, z'
   'x+0.714286, y+0.428571, z+0.142857'
   'x+0.714286, y+0.428571, z+0.285714'
   'x+0.714286, y+0.428571, z+0.428571'
   'x+0.714286, y+0.428571, z+0.571429'
   'x+0.714286, y+0.428571, z+0.714286'
   'x+0.714286, y+0.428571, z+0.857143'
   'x+0.714286, y+0.571429, z'
   'x+0.714286, y+0.571429, z+0.142857'
   'x+0.714286, y+0.571429, z+0.285714'
   'x+0.714286, y+0.571429, z+0.428571'
   'x+0.714286, y+0.571429, z+0.571429'
   'x+0.714286, y+0.571429, z+0.714286'
   'x+0.714286, y+0.571429, z+0.857143'
   'x+0.714286, y+0.714286, z'
   'x+0.714286, y+0.714286, z+0.142857'
   'x+0.714286, y+0.714286, z+0.285714'
   'x+0.714286, y+0.714286, z+0.428571'
   'x+0.714286, y+0.714286, z+0.571429'
   'x+0.714286, y+0.714286, z+0.714286'
   'x+0.714286, y+0.714286, z+0.857143'
   'x+0.714286, y+0.857143, z'
   'x+0.714286, y+0.857143, z+0.142857'
   'x+0.714286, y+0.857143, z+0.285714'
   'x+0.714286, y+0.857143, z+0.428571'
   'x+0.714286, y+0.857143, z+0.571429'
   'x+0.714286, y+0.857143, z+0.714286'
   'x+0.714286, y+0.857143, z+0.857143'
   'x+0.857143, y, z'
   'x+0.857143, y, z+0.142857'
   'x+0.857143, y, z+0.285714'
   'x+0.857143, y, z+0.428571'
   'x+0.857143, y, z+0.571429'
   'x+0.857143, y, z+0.714286'
   'x+0.857143, y, z+0.857143'
   'x+0.857143, y+0.142857, z'
   'x+0.857143, y+0.142857, z+0.142857'
   'x+0.857143, y+0.142857, z+0.285714'
   'x+0.857143, y+0.142857, z+0.428571'
   'x+0.857143, y+0.142857, z+0.571429'
   'x+0.857143, y+0.142857, z+0.714286'
   'x+0.857143, y+0.142857, z+0.857143'
   'x+0.857143, y+0.285714, z'
   'x+0.857143, y+0.285714, z+0.142857'
   'x+0.857143, y+0.285714, z+0.285714'
   'x+0.857143, y+0.285714, z+0.428571'
   'x+0.857143, y+0.285714, z+0.571429'
   'x+0.857143, y+0.285714, z+0.714286'
   'x+0.857143, y+0.285714, z+0.857143'
   'x+0.857143, y+0.428571, z'
   'x+0.857143, y+0.428571, z+0.142857'
   'x+0.857143, y+0.428571, z+0.285714'
   'x+0.857143, y+0.428571, z+0.428571'
   'x+0.857143, y+0.428571, z+0.571429'
   'x+0.857143, y+0.428571, z+0.714286'
   'x+0.857143, y+0.428571, z+0.857143'
   'x+0.857143, y+0.571429, z'
   'x+0.857143, y+0.571429, z+0.142857'
   'x+0.857143, y+0.571429, z+0.285714'
   'x+0.857143, y+0.571429, z+0.428571'
   'x+0.857143, y+0.571429, z+0.571429'
   'x+0.857143, y+0.571429, z+0.714286'
   'x+0.857143, y+0.571429, z+0.857143'
   'x+0.857143, y+0.714286, z'
   'x+0.857143, y+0.714286, z+0.142857'
   'x+0.857143, y+0.714286, z+0.285714'
   'x+0.857143, y+0.714286, z+0.428571'
   'x+0.857143, y+0.714286, z+0.571429'
   'x+0.857143, y+0.714286, z+0.714286'
   'x+0.857143, y+0.714286, z+0.857143'
   'x+0.857143, y+0.857143, z'
   'x+0.857143, y+0.857143, z+0.142857'
   'x+0.857143, y+0.857143, z+0.285714'
   'x+0.857143, y+0.857143, z+0.428571'
   'x+0.857143, y+0.857143, z+0.571429'
   'x+0.857143, y+0.857143, z+0.714286'
   'x+0.857143, y+0.857143, z+0.857143'

loop_
   _atom_site_label
   _atom_site_occupancy
   _atom_site_fract_x
   _atom_site_fract_y
   _atom_site_fract_z
   _atom_site_adp_type
   _atom_site_U_iso_or_equiv
   _atom_site_type_symbol
   Zn0        1.0     0.000000     0.000000     0.000000    Uiso  ? Zn
   Zn1        1.0     0.000000     0.071429     0.071429    Uiso  ? Zn
   Zn2        1.0     0.071429     0.000000     0.071429    Uiso  ? Zn
   Zn3        1.0     0.071429     0.071429     0.000000    Uiso  ? Zn
   S4         1.0     0.035714     0.107143     0.107143    Uiso  ? S
   S5         1.0     0.035714     0.035714     0.035714    Uiso  ? S
   S6         1.0     0.107143     0.107143     0.035714    Uiso  ? S
   S7         1.0     0.107143     0.035714     0.107143    Uiso  ? S
